test/test_files/validation_tests/case1888rte.m
function mpc = case1888rte
%CASE1888RTE  AC Power flow data for French system.
%   Please see CASEFORMAT for details on the case file format.
%
%   This case accurately represents the size and complexity of French
%   very high voltage transmission network.
%   Part of this data was sampled in the offline platform of iTesla.
%   These data can be used to validate mathematical methods and tools.
%   These data should NOT be used for operation
%   nor planning of the French or European grids.
%
%   When publishing results based on this data, please cite:
%
%     C. Josz, S. Fliscounakis, J. Maeght, and P. Panciatici, "AC Power Flow
%     Data in MATPOWER and QCQP Format: iTesla, RTE Snapshots, and PEGASE"
%     http://arxiv.org/abs/1603.01533
%
%   Contacts:
%     Cédric Josz, Stéphane Fliscounakis, Jean Maeght, Patrick Panciatici
%     firstname.lastname@rte-france.com
%     Réseau de Transport d'Electricité (French Transmission System Operator)
%     Département Expertise Système, Immeuble "Le Colbert"
%     9 rue de la Porte de Buc, 78000 Versailles Cedex, France
%
%   March 3rd, 2016

%   MATPOWER
%   Copyright (c) 2016 by Cédric Josz, Stéphane Fliscounakis, Jean Maeght,
%   and Patrick Panciatici
%   Licensed under the Creative Commons Attribution 4.0 International license,
%   http://creativecommons.org/licenses/by/4.0/

%% MATPOWER Case Format : Version 2
mpc.version = '2';

%%-----  Power Flow Data  -----%%
%% system MVA base
mpc.baseMVA = 100;

%% bus data
%    bus_i    type    Pd    Qd    Gs    Bs    area    Vm    Va    baseKV    zone    Vmax    Vmin
mpc.bus = [
    1    1    5.8    -5.8    0    0    1    1.03149333    -43.4924134    225    1    1.08889    0.888889;
    2    1    0    0    0    0    1    1.05203485    -1.69989632    380    1    1.10263    1.04841;
    3    1    142.5    -13.4    0    0    1    1.0448381    -18.2673882    225    1    1.08444    1.00444;
    4    1    0    0    0    0    1    1.06460516    -20.5923155    150    1    1.10667    0.9;
    5    1    32.8    -5.3    0    0    1    1.06160466    -24.974129    225    1    1.08889    0.933333;
    6    1    40.2    4    0    0    1    1.06056279    -25.2851419    225    1    1.08889    0.933333;
    7    1    0    0    0    0    1    1.05380777    -21.4555758    380    1    1.10526    1.03947;
    8    1    0    0    0    0    1    1.05708339    -22.5908652    380    1    1.10526    1.03947;
    9    1    0    0    0    0    1    1.04785952    -36.52218    225    1    1.09035    1.00444;
    10    1    148.8    14.9    0    0    1    1.04436458    -29.2139973    225    1    1.08889    0.933333;
    11    1    25.6    5    0    0    1    1.04319498    -40.8700924    225    1    1.08889    1.00444;
    12    1    39.1    8.7    0    0    1    1.02281295    -40.3898303    225    1    1.08889    1.00444;
    13    1    70.5    17.2    0    0    1    1.04317979    -40.8672304    225    1    1.08889    1.00444;
    14    1    36    -4.2    0    0    1    1.02894304    -42.5999043    225    1    1.08252    0.95;
    15    1    0    0    0    0    1    1.05264309    -32.8339736    225    1    1.08889    1.00444;
    16    1    0    0    0    0    1    1.05264349    -32.8339765    225    1    1.08889    1.00444;
    17    1    23.7    -12.4    0    0    1    1.02901493    -42.627265    225    1    1.08889    0.888889;
    18    1    5.9    -4.8    0    0    1    1.03827721    -34.821698    225    1    1.09633    0.986667;
    19    1    34    3.7    0    0    1    1.03589153    -40.9750755    225    1    1.08889    1.00444;
    20    1    6.9    0.8    0    0    1    1.03591814    -40.9727768    225    1    1.08889    1.00444;
    21    1    9.2    -29.1    0    0    1    1.04563856    -37.729861    225    1    1.08889    1.00444;
    22    1    67.7    -3.6    0    0    1    1.04526149    -38.013764    225    1    1.08889    0.986667;
    23    1    25.4    -2.7    0    0    1    1.02132076    -46.8550416    225    1    1.08889    0.888889;
    25    1    64    4.6    0    0    1    1.05341127    -16.9569828    225    1    1.08444    1.00889;
    27    1    71.6    46.7    0    0    1    1.02093389    -19.8876317    225    1    1.08889    0.933333;
    28    1    105.4    6.9    0    0    1    1.03730024    -35.8773947    225    1    1.08889    1.00444;
    29    1    0    0    0    0    1    1.05200172    -1.68628576    380    1    1.10526    1.04842;
    30    1    0    0    0    0    1    1.05203048    -1.66991411    380    1    1.10526    1.04842;
    31    1    21.7    0.9    0    0    1    1.04882932    -5.02836666    225    1    1.08444    1.00889;
    33    1    68.9    2.6    0    0    1    1.03238586    -5.81622313    225    1    1.08444    1.00889;
    34    1    50.6    12.7    0    0    1    1.04308498    -40.784603    225    1    1.08889    1.00444;
    35    1    17    2.1    0    0    1    1.02288941    -21.6110255    150    1    1.08    0.966667;
    36    1    38.2    6.3    0    0    1    1.06155485    -30.7719291    225    1    1.09212    1;
    37    1    0    0    0    0    1    1.06914917    -28.3384744    380    1    1.10526    1.04785;
    38    1    89    9.6    0    0    1    1.04384914    -38.1605038    225    1    1.08889    0.986667;
    2050    1    0    0    0    -64    1    1.02504482    -43.1806456    20    1    1.5    0.8;
    39    1    70.9    -2.3    0    0    1    1.0289438    -42.3593003    225    1    1.08889    0.968889;
    40    1    136.2    -10.7    0    0    1    1.03444741    -38.8153203    380    1    1.10526    1;
    41    1    64.6    17.3    0    0    1    1.04164115    -27.3301536    225    1    1.08889    0.933333;
    42    1    13.4    3.3    0    0    1    1.02663818    -46.6229704    225    1    1.08889    0.888889;
    43    1    33.3    4.7    0    0    1    1.0264638    -46.6671033    225    1    1.08889    0.888889;
    44    1    211.6    -1.3    0    0    1    1.05486257    -26.1320802    225    1    1.08496    1.00444;
    45    1    92.1    -9.1    0    0    1    1.04812576    -38.9307223    225    1    1.08889    1.00444;
    46    2    0    0    0    0    1    1.038    -7.667229    150    1    1.10843    0.9;
    47    1    0    0    0    0    1    1.0263661    -41.311783    225    1    1.08889    1.00444;
    48    1    0    0    0    0    1    1.02636589    -41.3117818    225    1    1.08889    1.00444;
    49    1    63.7    84.5    0    -80    1    1.02636466    -41.3117749    225    1    1.08889    1.00444;
    50    1    10.4    6.6    0    0    1    1.03638741    -36.2197213    225    1    1.08889    1.00444;
    51    1    0    0    0    0    1    1.05188712    -17.4043224    225    1    1.08889    1;
    52    1    68.7    16.5    0    0    1    1.01896671    -46.9184464    225    1    1.08889    0.888889;
    53    1    101.2    15.9    0    0    1    1.01034096    -45.5670543    225    1    1.08889    0.968889;
    54    1    0    0    0    0    1    1.01362701    -43.3936365    380    1    1.10526    1;
    55    1    28.9    10.6    0    0    1    1.02696752    -5.12919002    225    1    1.08444    1.00889;
    56    1    28.2    2.1    0    0    1    1.0271573    -5.13060801    225    1    1.08444    1.00889;
    1827    1    109.6    -12.9    0    0    1    1.04260248    -34.6579535    225    1    1.08889    1.00444;
    57    1    27.3    -10.9    0    0    1    1.05354664    -20.3612759    225    1    1.08945    0.933333;
    58    2    0    0    0    0    1    1.03648193    -7.87858801    150    1    1.10862    0.9;
    59    1    36.8    20.3    0    0    1    1.02314002    -2.05815662    225    1    1.08444    1.00889;
    60    1    36.5    30.8    0    0    1    1.02296855    -2.05607045    225    1    1.08444    1.00889;
    61    1    0    0    0    0    1    1.02486847    -2.91097833    225    1    1.08889    0.977778;
    62    1    8.4    -0.3    0    0    1    1.02838774    -44.8442595    225    1    1.08889    0.888889;
    63    1    13.2    -6.3    0    0    1    1.06744633    -26.4263846    225    1    1.08889    0.933333;
    64    1    13.2    3.3    0    0    1    1.02235895    -40.5268336    225    1    1.08889    1.00444;
    65    1    22.7    2.5    0    0    1    1.04797022    -36.5723751    225    1    1.08889    1.00444;
    66    1    11.4    -9.7    0    0    1    1.05467372    -17.6792601    225    1    1.08889    1;
    67    1    10.2    -1.3    0    0    1    1.03887262    -32.7145163    225    1    1.08889    0.986667;
    68    1    0    0    0    0    1    1.02951107    -46.2333151    225    1    1.08889    0.888889;
    69    1    0    0    0    0    1    1.02342882    -46.4249539    225    1    1.08889    0.888889;
    70    1    0    0    0    0    1    1.0318011    -44.4602666    380    1    1.10526    1.01316;
    71    1    39.2    2.8    0    0    1    1.03661923    -41.0915733    225    1    1.08889    1.00444;
    72    1    19.3    3.3    0    -80    1    1.03559998    -40.0611412    225    1    1.08889    1.00444;
    73    1    0    0    0    0    1    1.04335905    -5.37629191    225    1    1.08889    0.977778;
    74    1    0    0    0    0    1    1.0433684    -5.3756094    225    1    1.08889    0.977778;
    75    1    131.9    3.2    0    0    1    1.04166114    -5.85761588    225    1    1.08444    1.00889;
    76    1    0    0    0    0    1    1.05127602    -21.5672592    225    1    1.08444    1.00444;
    77    1    0    0    0    0    1    1.04792325    -16.6550615    380    1    1.10263    1.04211;
    78    1    94.6    -1.9    0    0    1    1.05118552    -21.616673    225    1    1.08444    1.00444;
    79    1    -1.7    -4.6    0    0    1    1.02331098    -40.2941188    225    1    1.08936    1.00444;
    80    1    3.6    -7.2    0    0    1    1.02331121    -40.2982078    225    1    1.08936    1.00444;
    81    1    35.4    10.9    0    0    1    1.03217693    -41.4880591    225    1    1.08889    0.888889;
    82    1    15.1    0.7    0    0    1    1.02481856    -45.0281473    225    1    1.08124    0.95;
    83    1    57.4    18    0    0    1    1.01752839    -46.2166908    225    1    1.08889    0.888889;
    84    1    89.9    -5.8    0    0    1    1.05114958    -18.5175825    225    1    1.08889    1;
    85    1    0    0    0    0    1    1.02932206    -16.3727754    225    1    1.08889    1;
    86    1    239.8    17.5    0    0    1    1.06749173    -16.360036    380    1    1.10526    1.0507;
    87    1    35.5    16    0    0    1    1.04562791    -13.9985911    225    1    1.08889    1;
    88    1    76.1    23    0    0    1    1.05684667    -17.6200243    225    1    1.08889    1;
    89    2    0    0    0    0    1    1.02    -12.0782361    150    1    1.1    0.9;
    90    1    21.3    12    0    0    1    1.01562498    -34.6787681    225    1    1.08889    0.986667;
    91    1    11.2    -5.2    0    0    1    1.0442032    -9.20439526    225    1    1.08444    1.00889;
    92    1    0    0    0    0    1    1.04784091    -30.3617823    380    1    1.10526    1.04211;
    93    1    0    0    0    0    1    1.04819669    -30.7872457    380    1    1.10526    1.04211;
    96    1    11.7    1.3    0    0    1    1.05246647    -18.3716113    225    1    1.08889    1;
    97    1    6.1    1.4    0    0    1    1.05271498    -34.1174229    225    1    1.08889    1.00444;
    98    1    31.6    2.6    0    0    1    1.02595701    -10.633136    150    1    1.1    0.9;
    99    1    68.9    -11.7    0    0    1    1.05109262    -20.0623153    225    1    1.08889    1;
    100    2    0.2    -0    0    0    1    1.036    -41.0134772    225    1    1.08294    0.95;
    101    1    0    0    0    0    1    1.06130462    -25.0525845    225    1    1.08889    0.933333;
    102    1    0    0    0    0    1    1.05730728    -22.5507174    380    1    1.10526    1.03947;
    103    1    0    0    0    0    1    1.05390093    -21.4221244    380    1    1.10526    1.03947;
    104    1    0    0    0    0    1    1.04342734    -40.8553116    225    1    1.08889    1.00444;
    1828    1    30.1    3.8    0    0    1    1.03331865    -42.0075156    225    1    1.08889    1.00444;
    105    1    0    0    0    0    1    1.0153912    -37.0396936    225    1    1.08889    0.986667;
    106    1    12.1    4.5    0    0    1    1.04327481    -40.8636252    225    1    1.08889    1.00444;
    107    1    106.1    -0.3    0    0    1    1.03317069    -24.414835    225    1    1.08889    0.933333;
    108    1    0    0    0    0    1    1.0448452    -22.5790651    380    1    1.10526    1.03947;
    109    1    43.3    8.4    0    0    1    1.05363596    -16.874679    225    1    1.08889    1;
    110    1    33.2    -7.5    0    0    1    1.04972999    -38.4350145    225    1    1.08986    1.00444;
    111    1    99.5    -12.4    0    0    1    1.07047513    -24.3641392    225    1    1.09612    1;
    112    1    116.4    -6.7    0    0    1    1.036317    -35.8006563    225    1    1.08889    0.986667;
    113    1    65.7    14.7    0    0    1    1.04783962    -36.5197778    225    1    1.09036    1.00444;
    114    1    107.2    21.2    0    0    1    1.01859218    -46.9856319    225    1    1.08889    0.924444;
    115    1    56.9    -2.7    0    0    1    1.04478539    -31.9620766    225    1    1.09614    0.986667;
    117    1    0    0    0    0    1    1.04949781    -30.8376086    380    1    1.10526    1.03947;
    119    1    123.6    -19.8    0    0    1    1.02694981    -29.5018375    225    1    1.08444    1.00444;
    2051    1    0    0    0    -64    1    1.00159779    -16.1870396    20    1    1.4    0.8;
    120    1    33.3    -21.3    0    0    1    1.05166038    -15.901803    225    1    1.08444    1.00889;
    121    1    0    0    0    0    1    1.04809244    -13.5762141    380    1    1.10263    1.02895;
    122    1    1.7    -4.4    0    0    1    1.03371202    -24.4313009    225    1    1.08889    0.933333;
    123    1    140.3    17.3    0    0    1    1.02448071    -20.6158774    225    1    1.08889    0.933333;
    124    1    33.7    -1.8    0    0    1    1.07264692    -28.2815068    63    1    1.07937    0.920635;
    125    2    0    0    0    0    1    1.034    -11.0182488    225    1    1.07476    0.95;
    126    1    -1.9    -5.4    0    0    1    1.05886575    -9.67090844    225    1    1.09768    1;
    127    1    0    0    0    0    1    1.0534005    -9.63558802    380    1    1.10526    1.05263;
    128    1    0    0    0    0    1    1.05345569    -9.63199227    380    1    1.10526    1.05263;
    129    1    0    0    0    0    1    1.05346235    -9.62850865    380    1    1.10526    1.05263;
    130    1    0    0    0    0    1    1.05348025    -9.64413157    380    1    1.10526    1.05263;
    131    1    0    0    0    0    1    1.04463475    -31.8804036    225    1    1.09645    0.986667;
    132    1    0    0    0    0    1    1.04466247    -31.8527006    225    1    1.09645    0.986667;
    133    1    0    0    0    0    1    1.04943382    -30.7682197    380    1    1.10526    1.03947;
    134    1    77.3    -10.6    0    0    1    1.02932303    -43.7529806    225    1    1.08889    0.968889;
    135    1    28.1    3.8    0    0    1    1.05322278    -16.9207932    225    1    1.08444    1.00889;
    136    1    -5.2    -9.4    0    0    1    1.04793054    -34.5469331    380    1    1.10526    1.03947;
    137    1    106.4    8    0    0    1    1.04090791    -18.3030267    225    1    1.08889    0.933333;
    138    1    0    0    0    0    1    1.0403026    -14.6191905    380    1    1.10526    1.03947;
    140    1    113.7    -8.3    0    0    1    1.04785941    -5.81393081    225    1    1.08444    1.00889;
    141    1    44.6    0.5    0    0    1    1.04713663    -5.59951129    225    1    1.08444    1.00889;
    142    1    165.2    -11.8    0    0    1    1.03825771    -17.2895964    225    1    1.08444    1.00444;
    143    1    29.2    2.1    0    0    1    1.04357747    -18.7041615    225    1    1.08889    0.933333;
    144    1    32.8    4.4    0    0    1    1.04355185    -18.7086771    225    1    1.08889    0.933333;
    145    1    19    -18.1    0    0    1    1.04972043    -38.4186184    225    1    1.08952    1.00444;
    146    1    0    0    0    0    1    1.04889424    -19.7144055    225    1    1.09478    1;
    147    1    0    0    0    0    1    1.04889232    -19.7143836    225    1    1.09478    1;
    148    1    37.1    5.6    0    0    1    1.05119071    -18.2332466    225    1    1.08889    1;
    149    1    20    -3.9    0    0    1    1.05270739    -34.0423111    225    1    1.08889    1.00444;
    150    1    38.1    1.6    0    0    1    1.03628049    -9.30143923    225    1    1.08444    1.00889;
    151    1    24.8    -1.8    0    0    1    1.05024615    -19.0576322    225    1    1.08889    1;
    152    1    0    0    0    0    1    1.04381179    -11.0161734    225    1    1.08444    1.00889;
    153    1    0    0    0    0    1    1.04380088    -11.0190648    225    1    1.08444    1.00889;
    154    1    0    0    0    0    1    1.04306522    -6.22228475    225    1    1.08444    1.00889;
    155    1    0    0    0    0    1    1.04527756    -4.86384421    380    1    1.10263    1.02895;
    156    1    155.3    26.5    0    0    1    1.01779227    -46.1312561    225    1    1.08889    0.888889;
    157    1    0    0    0    0    1    1.05885154    -9.67076425    225    1    1.09766    1;
    158    1    0    0    0    0    1    1.05343984    -9.71002957    380    1    1.10526    1.05263;
    159    1    21.5    4.4    0    0    1    1.03810341    -33.7186436    225    1    1.08889    0.986667;
    160    1    26.2    2.1    0    0    1    1.05228533    -17.9863346    225    1    1.08889    1;
    161    1    0    0    0    0    1    1.05124322    -33.8015412    225    1    1.08444    1.00444;
    162    1    0    0    0    0    1    1.05124322    -33.8015412    225    1    1.08444    1.00444;
    163    1    0    0    0    0    1    1.05125059    -33.8017381    225    1    1.08444    1.00444;
    164    1    55.3    -11.4    0    0    1    1.05124218    -33.8015135    225    1    1.08444    1.00444;
    165    1    0    0    0    0    1    1.02155415    -19.8388855    225    1    1.08889    0.933333;
    166    1    30    12.3    0    0    1    1.02862428    -28.96034    225    1    1.08889    0.986667;
    2019    1    0    0    0    -64    1    0.961263558    -20.2495099    20    1    1.4    0.9;
    167    1    0    0    0    0    1    1.04509756    -19.645302    225    1    1.08941    1;
    168    1    0    0    0    0    1    1.04962397    -15.8950978    380    1    1.10526    1.05263;
    169    2    0    0    0    0    1    1.065    -24.8986609    225    1    1.1    0.9;
    170    1    17.8    2.6    0    0    1    1.02141398    -22.2635234    150    1    1.08    0.966667;
    171    1    25.3    -3.2    0    0    1    1.03619839    -40.8869822    225    1    1.08889    1.00444;
    172    1    -3.7    -2    0    0    1    1.03651623    -40.8372725    225    1    1.08889    1.00444;
    173    1    37.3    0.7    0    0    1    1.01494319    -46.3423742    225    1    1.08889    0.888889;
    181    1    107.9    3.9    0    0    1    1.05024862    -19.0356156    225    1    1.08889    1;
    182    1    29.5    6.8    0    0    1    1.03299656    -36.3585668    225    1    1.08889    0.986667;
    183    1    0    0    0    0    1    1.04359513    -13.9192469    380    1    1.10526    1.03947;
    184    1    0    0    0    0    1    1.04013214    -13.7300714    380    1    1.10526    1.03947;
    185    1    0    0    0    0    1    1.04015033    -13.7337203    380    1    1.10526    1.03947;
    186    1    0    0    0    0    1    1.04358655    -13.930155    380    1    1.10526    1.03947;
    187    1    28.1    -10    0    0    1    1.03151341    -45.3907842    225    1    1.08889    0.924444;
    188    1    -2    -1.1    0    0    1    1.04498229    -37.598826    225    1    1.08889    0.986667;
    189    1    65.8    19.1    0    0    1    1.03675304    -31.5354079    225    1    1.08444    1.00444;
    190    1    -2.3    1.2    0    0    1    1.04290358    -25.4957831    380    1    1.10263    1.04211;
    191    1    -2.3    1.4    0    0    1    1.04296248    -25.5006182    380    1    1.10263    1.04211;
    192    1    0    0    0    0    1    1.03637178    -41.2331636    225    1    1.08889    1.00444;
    193    1    0    0    0    0    1    1.04649206    -6.21730893    225    1    1.08889    0.977778;
    194    1    0    0    0    0    1    1.04649206    -6.21730893    225    1    1.08889    0.977778;
    195    1    83.6    -8.6    0    0    1    1.02847573    -44.3382842    225    1    1.08889    0.968889;
    196    1    0    0    0    0    1    1.03410731    -7.69153925    225    1    1.08889    0.933333;
    197    1    0    0    0    0    1    1.0330817    -8.15990324    225    1    1.08889    0.933333;
    198    1    57.5    10.2    0    0    1    1.04150541    -26.0654439    225    1    1.08444    1.00444;
    199    1    177.4    -31.4    0    0    1    1.05205842    -21.9682498    225    1    1.08444    1.00444;
    200    1    0    0    0    0    1    1.03755574    -6.61250563    225    1    1.08889    0.977778;
    201    1    0    0    0    0    1    1.04241006    -24.9412088    225    1    1.08444    1.00444;
    202    1    124.2    -3.2    0    0    1    1.03201187    -44.2344049    225    1    1.08889    0.951111;
    203    1    35.3    1.9    0    0    1    1.03608558    -40.0215909    225    1    1.08889    1.00444;
    204    1    51.6    -4    0    0    1    1.04471086    -37.5003512    225    1    1.08889    0.986667;
    2086    1    0    0    0    -64    1    0.996621657    -16.7356538    20    1    1.4    0.8;
    205    1    16.9    -1.8    0    0    1    1.04509955    -16.3140845    225    1    1.08444    1.00889;
    206    1    0    0    0    0    1    1.04768569    -14.4079203    380    1    1.10263    1.02895;
    207    1    38.6    -0.7    0    0    1    1.03612184    -40.1303784    225    1    1.08889    1.00444;
    1829    2    0    0    0    0    1    1.022    -44.3479996    225    1    1.07859    0.95;
    208    1    0    0    0    0    1    1.02199257    -44.347975    225    1    1.08889    0.888889;
...
];

%% generator data
%    bus    Pg    Qg    Qmax    Qmin    Vg    mBase    status    Pmax    Pmin    Pc1    Pc2    Qc1min    Qc1max    Qc2min    Qc2max    ramp_agc    ramp_10    ramp_30    ramp_q    apf
mpc.gen = [
    1268    44.5    -1.55    27    -9    1.027    100    1    45    44    0    0    0    0    0    0    0    0    0    0    0;
    1268    44.5    -1.55    27    -9    1.027    100    1    45    44    0    0    0    0    0    0    0    0    0    0    0;
    1356    21    -0.4    7    -12    1.046    100    1    22    4.4    0    0    0    0    0    0    0    0    0    0    0;
    89    24    -1.48    13    -9    1.02    100    1    25    5    0    0    0    0    0    0    0    0    0    0    0;
    125    22    -0.19    8    -17    1.034    100    1    23.4    4.68    0    0    0    0    0    0    0    0    0    0    0;
    908    19    1.9    2    1.9    1.035    100    1    20    4    0    0    0    0    0    0    0    0    0    0    0;
    817    0    0    1    0.9    1.039    100    0    12    2.4    0    0    0    0    0    0    0    0    0    0    0;
    817    13    0.9    1    0.9    1.039    100    1    14    2.8    0    0    0    0    0    0    0    0    0    0    0;
    817    0    0    1    0.9    1.039    100    0    12    2.4    0    0    0    0    0    0    0    0    0    0    0;
    1335    28    -0.87    10    -10    1.021    100    1    30    6    0    0    0    0    0    0    0    0    0    0    0;
    396    10    1    5    1    1.015    100    1    11    2.2    0    0    0    0    0    0    0    0    0    0    0;
    396    10    1    5    1    1.015    100    1    11    2.2    0    0    0    0    0    0    0    0    0    0    0;
    975    7    -15    15    -15    1.05    100    1    35    7    0    0    0    0    0    0    0    0    0    0    0;
    858    16.92    0    0    0    1.048    100    1    55.4    11.08    0    0    0    0    0    0    0    0    0    0    0;
    921    40    -20    25    -20    1.045    100    1    42    8.4    0    0    0    0    0    0    0    0    0    0    0;
    921    40    -20    25    -20    1.045    100    1    42    8.4    0    0    0    0    0    0    0    0    0    0    0;
    1255    15.61    -24.36    26.1    -24.36    1.046    100    1    87    17.4    0    0    0    0    0    0    0    0    0    0    0;
    169    8    0.49    8.3    -8.3    1.065    100    1    8.3    1.66    0    0    0    0    0    0    0    0    0    0    0;
    448    0.85    0    0    0    1.04    100    1    4    0    0    0    0    0    0    0    0    0    0    0    0;
    241    2.6    -0.21    5    -5    1.011    100    1    13    2.6    0    0    0    0    0    0    0    0    0    0    0;
    241    2.6    -0.21    5    -5    1.011    100    1    13    2.6    0    0    0    0    0    0    0    0    0    0    0;
    241    2.6    -0.21    5    -5    1.011    100    1    13    2.6    0    0    0    0    0    0    0    0    0    0    0;
    241    2.6    -0.21    5    -5    1.011    100    1    13    2.6    0    0    0    0    0    0    0    0    0    0    0;
    270    48    0.15    27    -9    1.029    100    1    50    10    0    0    0    0    0    0    0    0    0    0    0;
    885    0.29    0    0    0    1.029    100    1    8    1.6    0    0    0    0    0    0    0    0    0    0    0;
    885    0.29    0    0    0    1.029    100    1    8    1.6    0    0    0    0    0    0    0    0    0    0    0;
    876    -1.22    0    0    0    1.04    100    1    54    10.8    0    0    0    0    0    0    0    0    0    0    0;
    46    28    -4    10    -4    1.038    100    1    30    6    0    0    0    0    0    0    0    0    0    0    0;
    803    13    -0.14    4.63    -5.56    1.036    100    1    13.8    2.76    0    0    0    0    0    0    0    0    0    0    0;
    356    11.82    -11.59    12.42    -11.59    1.047    100    1    41.4    8.28    0    0    0    0    0    0    0    0    0    0    0;
    100    26    -3.91    59    -26    1.036    100    1    130    26    0    0    0    0    0    0    0    0    0    0    0;
    707    20    -3.74    8    -8    1.05    100    1    21    4.2    0    0    0    0    0    0    0    0    0    0    0;
    973    -0    0    0    0    1.039    100    0    0    -8    0    0    0    0    0    0    0    0    0    0    0;
    973    51    -10    17    -10    1.039    100    1    53    10.6    0    0    0    0    0    0    0    0    0    0    0;
    1118    2.77    0    0    0    1.03    100    1    55    11    0    0    0    0    0    0    0    0    0    0    0;
    897    17.92    -3    10    -3    1.027    100    1    27    5.4    0    0    0    0    0    0    0    0    0    0    0;
    897    17.92    -3    10    -3    1.027    100    1    27    5.4    0    0    0    0    0    0    0    0    0    0    0;
    58    0    0    2    1.9    1.037    100    0    6    1.2    0    0    0    0    0    0    0    0    0    0    0;
    82    1.3    0    0    0    1.025    100    1    25.3    5.06    0    0    0    0    0    0    0    0    0    0    0;
    474    13.22    -13    10    -13    1.036    100    1    52    10.4    0    0    0    0    0    0    0    0    0    0    0;
    1221    11.6    3.43    35    -35    1.056    100    1    58    11.6    0    0    0    0    0    0    0    0    0    0    0;
    355    59    -40    40    -40    1.05    100    1    62    12.4    0    0    0    0    0    0    0    0    0    0    0;
    471    0.91    0    1    0    1.037    100    1    78    15.6    0    0    0    0    0    0    0    0    0    0    0;
    1321    10    0.9    1    0.9    1.039    100    1    11    2.2    0    0    0    0    0    0    0    0    0    0    0;
    1321    2    -0.01    0.1    -0.1    1.039    100    1    2.5    0    0    0    0    0    0    0    0    0    0    0    0;
    1829    0.16    0.06    8    -8    1.022    100    1    23.5    4.7    0    0    0    0    0    0    0    0    0    0    0;
    1005    37    -19    19    -19    1.02    100    1    39    7.8    0    0    0    0    0    0    0    0    0    0    0;
    14    2.38    0    0    0    1.029    100    1    27.6    5.52    0    0    0    0    0    0    0    0    0    0    0;
    14    0.64    0    0    0    1.029    100    1    24    4.8    0    0    0    0    0    0    0    0    0    0    0;
    1628    200    -60.27    155.3    -217.55    0.95    100    1    670    200    0    0    0    0    0    0    0    0    0    0    0;
    1629    450.03    -42.82    231.39    -190.58    0.95    100    1    700    140    0    0    0    0    0    0    0    0    0    0    0;
    1844    26    -13.69    24.62    -15.38    0.885    100    1    27    5.4    0    0    0    0    0    0    0    0    0    0    0;
    1630    83    8.77    43.86    -8.5    0.928    100    1    86    17.2    0    0    0    0    0    0    0    0    0    0    0;
    1631    9.8    3.09    22.19    -9.73    0.93    100    1    49    9.8    0    0    0    0    0    0    0    0    0    0    0;
    1846    30    -1.12    8.36    -8.36    1.034    100    1    32    6.4    0    0    0    0    0    0    0    0    0    0    0;
    1632    30    -1.12    8.36    -8.36    1.034    100    1    32    6.4    0    0    0    0    0    0    0    0    0    0    0;
    1847    30    -1.06    8.15    -8.57    1.034    100    1    32    6.4    0    0    0    0    0    0    0    0    0    0    0;
    1848    30    -1.06    8.15    -8.57    1.034    100    1    32    6.4    0    0    0    0    0    0    0    0    0    0    0;
    1852    88    16.22    54.57    -35.43    1.01    100    1    92    18.4    0    0    0    0    0    0    0    0    0    0    0;
    1854    88    28.45    56.48    -33.52    1.031    100    1    92    18.4    0    0    0    0    0    0    0    0    0    0    0;
    1633    912    55.65    421.39    -376.62    1    100    1    945.08    255.07    0    0    0    0    0    0    0    0    0    0    0;
    1634    944    57.67    428.83    -369.21    0.999    100    1    978.04    288.05    0    0    0    0    0    0    0    0    0    0    0;
    1635    942    57.52    428.07    -369.92    0.999    100    1    976.08    256.08    0    0    0    0    0    0    0    0    0    0    0;
    1636    910    55.51    420.86    -377.13    1    100    1    943.08    253.07    0    0    0    0    0    0    0    0    0    0    0;
    1637    156    -8.21    153.03    -90.23    0.954    100    1    252    156    0    0    0    0    0    0    0    0    0    0    0;
    1638    154    -8.17    152.44    -90.81    0.954    100    1    250    154    0    0    0    0    0    0    0    0    0    0    0;
    1639    154    -3.53    105.68    -58.28    0.977    100    1    250    154    0    0    0    0    0    0    0    0    0    0    0;
    1640    122    -16.51    228.81    -159.91    0.983    100    1    305    122    0    0    0    0    0    0    0    0    0    0    0;
    1641    89    -2.78    94.32    -74.64    0.986    100    1    155    89    0    0    0    0    0    0    0    0    0    0    0;
    1642    11.6    -3.44    21.65    -18.77    0.988    100    1    58    11.6    0    0    0    0    0    0    0    0    0    0    0;
    1643    37.93    -1.89    16.01    -10.66    0.988    100    1    58    11.6    0    0    0    0    0    0    0    0    0    0    0;
    1855    11.6    -3.39    21.47    -18.95    0.988    100    1    58    11.6    0    0    0    0    0    0    0    0    0    0    0;
    1644    38.05    -1.9    16.05    -10.62    0.988    100    1    58    11.6    0    0    0    0    0    0    0    0    0    0    0;
    1645    37.39    -1.84    15.81    -10.86    0.988    100    1    58    11.6    0    0    0    0    0    0    0    0    0    0    0;
    1646    133    8.92    146.45    -90.18    0.95    100    1    263    133    0    0    0    0    0    0    0    0    0    0    0;
    1647    43    11.27    50.67    -38.09    1.045    100    1    44.96    8.99    0    0    0    0    0    0    0    0    0    0    0;
    1861    30    2.78    19.75    -16.25    1.048    100    1    32    6.4    0    0    0    0    0    0    0    0    0    0    0;
    1648    903    119.3    530.99    -158.23    0.963    100    1    936.29    266.29    0    0    0    0    0    0    0    0    0    0    0;
    1649    910    9.35    533.69    -156.07    0.946    100    1    942.82    272.82    0    0    0    0    0    0    0    0    0    0    0;
    1650    892    122.18    537.68    -152.82    0.964    100    1    924.28    274.28    0    0    0    0    0    0    0    0    0    0    0;
    1651    890    9.21    529.89    -160.89    0.946    100    1    922.8    272.8    0    0    0    0    0    0    0    0    0    0    0;
    1652    318    -97.83    681.04    -153    0.945    100    1    1308    318    0    0    0    0    0    0    0    0    0    0    0;
    1862    318    -73.74    681.03    -153    0.948    100    1    1308    318    0    0    0    0    0    0    0    0    0    0    0;
    1653    33    -0.83    6.08    -1.92    1.029    100    1    35    7    0    0    0    0    0    0    0    0    0    0    0;
    1654    33    -0.86    6.21    -1.79    1.029    100    1    35    7    0    0    0    0    0    0    0    0    0    0    0;
    1655    33    -0.86    6.21    -1.79    1.029    100    1    35    7    0    0    0    0    0    0    0    0    0    0    0;
    1656    33    -0.83    6.11    -1.89    1.029    100    1    35    7    0    0    0    0    0    0    0    0    0    0    0;
    1657    33    -0.83    6.11    -1.89    1.029    100    1    35    7    0    0    0    0    0    0    0    0    0    0    0;
    1658    33    -0.83    6.11    -1.89    1.029    100    1    35    7    0    0    0    0    0    0    0    0    0    0    0;
    1863    35    1.08    18.45    -13.16    0.979    100    1    36.97    7.39    0    0    0    0    0    0    0    0    0    0    0;
    1659    35    1.08    18.45    -13.16    0.979    100    1    36.97    7.39    0    0    0    0    0    0    0    0    0    0    0;
    1660    35    1.08    18.45    -11.35    0.979    100    1    36.97    7.39    0    0    0    0    0    0    0    0    0    0    0;
    1661    35    1.05    18.11    -11.7    0.979    100    1    36.97    7.39    0    0    0    0    0    0    0    0    0    0    0;
    1662    35    1.05    18.21    -13.41    0.978    100    1    36.97    7.39    0    0    0    0    0    0    0    0    0    0    0;
    1663    35    1.09    18.55    -13.05    0.978    100    1    36.97    7.39    0    0    0    0    0    0    0    0    0    0    0;
    1865    19    -1.21    12.32    -7.68    0.942    100    1    20    4    0    0    0    0    0    0    0    0    0    0    0;
    1866    29    0.99    17.85    -13.79    0.978    100    1    30.98    6.2    0    0    0    0    0    0    0    0    0    0    0;
    1664    29    0.99    17.85    -13.79    0.978    100    1    30.98    6.2    0    0    0    0    0    0    0    0    0    0    0;
    1665    29    1    18.01    -13.62    0.978    100    1    30.98    6.2    0    0    0    0    0    0    0    0    0    0    0;
    1867    29    1    18.01    -13.62    0.978    100    1    30.98    6.2    0    0    0    0    0    0    0    0    0    0    0;
    1666    29    0.99    17.89    -13.75    0.979    100    1    30.98    6.2    0    0    0    0    0    0    0    0    0    0    0;
    1868    29    0.98    17.74    -13.91    0.979    100    1    30.98    6.2    0    0    0    0    0    0    0    0    0    0    0;
    1667    1283    7.98    656.06    -184.89    0.947    100    1    1330    337    0    0    0    0    0    0    0    0    0    0    0;
    1668    1114.28    16.37    656.92    -183.9    0.952    100    1    1360    367    0    0    0    0    0    0    0    0    0    0    0;
    1669    1088.81    14.75    648.03    -192.8    0.953    100    1    1360    367    0    0    0    0    0    0    0    0    0    0    0;
    1670    1.45    -75.51    281.46    -103.91    0.916    100    1    1.5    1.4    0    0    0    0    0    0    0    0    0    0    0;
    1873    48    45.94    94.03    -45.97    1.003    100    1    240    48    0    0    0    0    0    0    0    0    0    0    0;
    1874    48    46.96    95.11    -44.89    1.003    100    1    240    48    0    0    0    0    0    0    0    0    0    0    0;
    1671    910    -1.46    524.6    -107.2    0.95    100    1    942.72    232.72    0    0    0    0    0    0    0    0    0    0    0;
    1673    920    -1.3    511.64    -99.08    0.95    100    1    953.74    243.74    0    0    0    0    0    0    0    0    0    0    0;
    1674    919    -7.76    555.41    -99.32    0.949    100    1    952.74    242.74    0    0    0    0    0    0    0    0    0    0    0;
    1675    598.27    -35.9    682.28    -126.36    0.944    100    1    1503    403    0    0    0    0    0    0    0    0    0    0    0;
    1676    505.8    1.41    687.17    -121.66    0.95    100    1    1503    403    0    0    0    0    0    0    0    0    0    0    0;
    1875    1446    48.05    409.45    -352.29    0.973    100    1    1498    398    0    0    0    0    0    0    0    0    0    0    0;
    1677    1446    30.08    409.42    -352.33    0.971    100    1    1498    398    0    0    0    0    0    0    0    0    0    0    0;
    2022    15    20.78    51.88    -38.44    1.077    100    1    75    15    0    0    0    0    0    0    0    0    0    0    0;
    1876    15    20.78    51.88    -38.44    1.077    100    1    75    15    0    0    0    0    0    0    0    0    0    0    0;
    1877    15    20.78    51.88    -38.44    1.077    100    1    75    15    0    0    0    0    0    0    0    0    0    0    0;
    1878    15    20.78    51.88    -38.44    1.077    100    1    75    15    0    0    0    0    0    0    0    0    0    0    0;
    1678    91    -0.46    104.12    -61.4    0.957    100    1    95    8.5    0    0    0    0    0    0    0    0    0    0    0;
    1679    91    -0.45    103.94    -61.58    0.957    100    1    95    8.5    0    0    0    0    0    0    0    0    0    0    0;
    1680    4.2    -10.65    86.67    -10.65    0.961    100    1    148.2    4.2    0    0    0    0    0    0    0    0    0    0    0;
    1681    180    -3.8    220.22    -59.17    0.95    100    1    685    180    0    0    0    0    0    0    0    0    0    0    0;
    1682    588    -56.14    330.28    -165.24    0.928    100    1    610    310    0    0    0    0    0    0    0    0    0    0    0;
    1683    588    -45.22    297.67    -191.83    0.933    100    1    610    310    0    0    0    0    0    0    0    0    0    0    0;
    1684    205    -45.01    254.82    -293.65    0.954    100    1    700    205    0    0    0    0    0    0    0    0    0    0    0;
    1881    48    -1.86    15.6    -13.8    0.957    100    1    50    10    0    0    0    0    0    0    0    0    0    0    0;
    1882    48    -1.76    15.2    -14.2    0.957    100    1    50    10    0    0    0    0    0    0    0    0    0    0    0;
    1685    48    -1.91    15.81    -13.6    0.957    100    1    50    10    0    0    0    0    0    0    0    0    0    0    0;
    1883    48    -1.91    15.81    -13.6    0.957    100    1    50    10    0    0    0    0    0    0    0    0    0    0    0;
    1884    48    -1.91    15.81    -13.6    0.957    100    1    50    10    0    0    0    0    0    0    0    0    0    0    0;
    1885    48    -1.86    15.6    -13.8    0.957    100    1    50    10    0    0    0    0    0    0    0    0    0    0    0;
    1686    965    121.03    532.91    -90.14    0.972    100    1    1000    280    0    0    0    0    0    0    0    0    0    0    0;
    1687    965    122.14    535.45    -87.61    0.973    100    1    1000    280    0    0    0    0    0    0    0    0    0    0    0;
    1688    965    136.63    567.71    -88.3    0.974    100    1    1000    280    0    0    0    0    0    0    0    0    0    0    0;
    1689    0    0    559.16    -96.85    0.964    100    0    930    280    0    0    0    0    0    0    0    0    0    0    0;
    1888    55    -0.84    17.35    -17.35    0.983    100    1    57    11.4    0    0    0    0    0    0    0    0    0    0    0;
    1690    420.09    13.26    219.77    -155.72    0.922    100    1    451    239    0    0    0    0    0    0    0    0    0    0    0;
    1691    21    -4.1    51.25    -10.63    0.95    100    1    63    21    0    0    0    0    0    0    0    0    0    0    0;
    1692    248.8    -17.55    258.1    -182.18    0.99    100    1    433.8    248.8    0    0    0    0    0    0    0    0    0    0    0;
    1693    81.81    8.75    71.21    -44.25    0.95    100    1    168.17    81.81    0    0    0    0    0    0    0    0    0    0    0;
    1694    82.28    8.77    73.34    -37.69    0.95    100    1    168.6    82.28    0    0    0    0    0    0    0    0    0    0    0;
    1695    53.91    14.32    113.53    -43.7    0.95    100    1    248.21    53.91    0    0    0    0    0    0    0    0    0    0    0;
    1696    43.97    14.91    100.92    -59.36    0.95    100    1    238.09    43.97    0    0    0    0    0    0    0    0    0    0    0;
    1697    229.69    -21.95    525.14    -88.61    0.95    100    1    919.69    229.69    0    0    0    0    0    0    0    0    0    0    0;
    1698    229.69    -21.95    525.14    -88.61    0.95    100    1    919.69    229.69    0    0    0    0    0    0    0    0    0    0    0;
    1699    236.69    -21.76    526.77    -86.99    0.95    100    1    926.69    236.69    0    0    0    0    0    0    0    0    0    0    0;
    1700    251.69    -22.47    530.29    -83.48    0.95    100    1    941.69    251.69    0    0    0    0    0    0    0    0    0    0    0;
    1701    30    -9.68    10.32    -9.68    0.96    100    1    32    6.4    0    0    0    0    0    0    0    0    0    0    0;
    1702    38    0.07    19.22    -17.67    0.982    100    1    39.88    7.98    0    0    0    0    0    0    0    0    0    0    0;
    1703    38    0.07    19.34    -17.74    0.982    100    1    39.88    7.98    0    0    0    0    0    0    0    0    0    0    0;
    1889    38    0.07    19.24    -17.66    0.982    100    1    39.88    7.98    0    0    0    0    0    0    0    0    0    0    0;
    1704    1332    168.76    398.39    -396.86    0.988    100    1    1380    340    0    0    0    0    0    0    0    0    0    0    0;
    1705    1332    148.25    371.08    -424.16    0.985    100    1    1380    340    0    0    0    0    0    0    0    0    0    0    0;
    1890    4.8    0.02    5.35    -2.57    0.964    100    1    24    4.8    0    0    0    0    0    0    0    0    0    0    0;
    1891    4.8    0.03    5.48    -2.43    0.964    100    1    24    4.8    0    0    0    0    0    0    0    0    0    0    0;
    1892    4.86    0.02    5    -2.93    0.964    100    1    24    4.8    0    0    0    0    0    0    0    0    0    0    0;
    1706    12.83    0.02    5.29    -2.63    0.962    100    1    24    4.8    0    0    0    0    0    0    0    0    0    0    0;
    1707    9.2    0.07    10    -4.98    0.975    100    1    23.99    4.8    0    0    0    0    0    0    0    0    0    0    0;
    2026    4.8    0.05    8.26    -6.79    0.976    100    1    23.99    4.8    0    0    0    0    0    0    0    0    0    0    0;
    1898    4.8    0.07    10.17    -4.8    0.976    100    1    23.99    4.8    0    0    0    0    0    0    0    0    0    0    0;
    1708    9.45    1.8    1.81    1.8    0.984    100    1    23.99    4.8    0    0    0    0    0    0    0    0    0    0    0;
    1709    9.2    0.07    10.16    -4.81    0.975    100    1    23.99    4.8    0    0    0    0    0    0    0    0    0    0    0;
    1710    27    0.47    12.23    -7.55    0.984    100    1    28.98    5.8    0    0    0    0    0    0    0    0    0    0    0;
    1711    27    0.47    12.31    -7.46    0.984    100    1    28.98    5.8    0    0    0    0    0    0    0    0    0    0    0;
    1712    1262    0.64    615.09    -439.22    0.981    100    1    1308    288    0    0    0    0    0    0    0    0    0    0    0;
    1713    1262    -6.77    614.63    -439.67    0.98    100    1    1308    288    0    0    0    0    0    0    0    0    0    0    0;
    1714    442    15.78    255.9    -84.1    0.95    100    1    458.26    89.26    0    0    0    0    0    0    0    0    0    0    0;
    1715    309.71    81.22    524.88    -98.23    0.95    100    1    947    237    0    0    0    0    0    0    0    0    0    0    0;
    1716    313.55    81.38    528.27    -94.91    0.95    100    1    947    267    0    0    0    0    0    0    0    0    0    0    0;
    1717    349.48    50.21    529.5    -93.67    0.945    100    1    947    237    0    0    0    0    0    0    0    0    0    0    0;
    1718    328.64    65.05    528.59    -94.53    0.948    100    1    947    237    0    0    0    0    0    0    0    0    0    0    0;
    1719    311.18    81.26    529.53    -93.65    0.95    100    1    947    237    0    0    0    0    0    0    0    0    0    0    0;
    1720    237    78.79    504.13    -118.98    0.95    100    1    947    237    0    0    0    0    0    0    0    0    0    0    0;
    1721    125    3.56    104.81    -37.31    0.95    100    1    240    125    0    0    0    0    0    0    0    0    0    0    0;
    1906    33.88    8.52    69.06    -76.42    0.997    100    1    169.4    33.88    0    0    0    0    0    0    0    0    0    0    0;
    1907    33.88    8.53    69.08    -76.5    0.997    100    1    169.4    33.88    0    0    0    0    0    0    0    0    0    0    0;
    1908    33.88    8.49    68.92    -76.49    0.996    100    1    169.4    33.88    0    0    0    0    0    0    0    0    0    0    0;
    1909    33.88    8.5    68.97    -76.69    0.996    100    1    169.4    33.88    0    0    0    0    0    0    0    0    0    0    0;
    1910    33.88    8.53    69.1    -76.58    0.997    100    1    169.4    33.88    0    0    0    0    0    0    0    0    0    0    0;
    1911    33.88    8.53    69.1    -76.54    0.997    100    1    169.4    33.88    0    0    0    0    0    0    0    0    0    0    0;
    1912    33.88    8.43    68.67    -76.85    0.996    100    1    169.4    33.88    0    0    0    0    0    0    0    0    0    0    0;
    1913    33.88    8.43    68.69    -76.92    0.996    100    1    169.4    33.88    0    0    0    0    0    0    0    0    0    0    0;
    1722    265.51    -20.28    272.9    -127.1    0.95    100    1    456.8    216.8    0    0    0    0    0    0    0    0    0    0    0;
    1723    130    -1.13    159.71    -80.29    0.969    100    1    260    130    0    0    0    0    0    0    0    0    0    0    0;
    1724    0    0    198.66    -190.41    0.967    100    0    585    250    0    0    0    0    0    0    0    0    0    0    0;
    1725    250    -1.92    199.31    -189.68    0.951    100    1    585    250    0    0    0    0    0    0    0    0    0    0    0;
    1919    19    0.06    20.64    -19.15    1.027    100    1    19.98    4    0    0    0    0    0    0    0    0    0    0    0;
    1920    23    0.06    20.43    -19.38    1.026    100    1    23.98    4.8    0    0    0    0    0    0    0    0    0    0    0;
    1921    4.8    0.06    21    -18.66    1.029    100    1    23.98    4.8    0    0    0    0    0    0    0    0    0    0    0;
    1922    4.8    0.06    20.73    -19    1.029    100    1    23.98    4.8    0    0    0    0    0    0    0    0    0    0    0;
    1923    4.8    0.06    21.26    -18.37    1.029    100    1    23.98    4.8    0    0    0    0    0    0    0    0    0    0    0;
    1924    4.8    0.06    21.26    -18.37    1.029    100    1    23.98    4.8    0    0    0    0    0    0    0    0    0    0    0;
    1726    33    -0.43    9.31    -8.35    0.979    100    1    35    7    0    0    0    0    0    0    0    0    0    0    0;
    1727    33    -0.41    9.12    -8.54    0.979    100    1    35    7    0    0    0    0    0    0    0    0    0    0    0;
    1728    33    -0.51    10.16    -13.09    0.978    100    1    35    7    0    0    0    0    0    0    0    0    0    0    0;
    1928    33    -0.43    9.31    -8.35    0.979    100    1    35    7    0    0    0    0    0    0    0    0    0    0    0;
    1729    120    -16.3    104.52    -144.76    0.943    100    1    235    120    0    0    0    0    0    0    0    0    0    0    0;
    1931    70    15.58    47.31    -36.19    1.024    100    1    73    14.6    0    0    0    0    0    0    0    0    0    0    0;
    1932    66    17.99    51.14    -32.55    1.033    100    1    69    13.8    0    0    0    0    0    0    0    0    0    0    0;
...
];

%% branch data
%    fbus    tbus    r    x    b    rateA    rateB    rateC    ratio    angle    status    angmin    angmax
mpc.branch = [
    1833    1    0.002607    0.017462    0.0324    540    540    540    1    0    1    0    0;
    29    2    2.1e-05    0.000125    0.1386    737    737    737    1    0    1    0    0;
    675    2    0.000145    0.001877    0.0635    2487    2487    2487    1    0    1    0    0;
    1271    2    0.000319    0.003234    0.0838    1841    1841    1841    1    0    1    0    0;
    30    2    2.1e-05    0.000125    0.1386    737    737    737    1    0    1    0    0;
    142    3    0.006163    0.041067    0.0759    446    446    446    1    0    1    0    0;
    677    3    0.000652    0.004369    0.0081    558    558    558    1    0    1    0    0;
    1048    4    0.009733    0.034089    0.0185    0    0    0    1    0    1    0    0;
    101    5    0.000277    0.002015    0.003    288    288    288    1    0    1    0    0;
    286    6    0.00881    0.033995    0.0607    289    289    289    1    0    1    0    0;
    329    6    0.004642    0.019832    0.0354    255    255    255    1    0    1    0    0;
    737    5    0.008861    0.03506    0.0623    288    288    288    1    0    1    0    0;
    760    5    0.006993    0.032869    0.0557    255    255    255    1    0    1    0    0;
    1330    6    0.002173    0.008731    0.0152    0    0    0    1    0    1    0    0;
    1350    5    0.00077    0.003121    0.0051    0    0    0    1    0    1    0    0;
    1523    6    0.004109    0.016138    0.0284    288    288    288    1    0    1    0    0;
    102    8    8.3e-05    0.000907    0.0202    1034    1034    1034    1    0    1    0    0;
    316    8    0.000552    0.006726    0.0939    1786    1786    1786    1    0    1    0    0;
    623    8    0.000512    0.008012    0.2455    2462    2462    2462    1    0    1    0    0;
    882    8    0.001107    0.00918    0.1906    1644    1644    1644    1    0    1    0    0;
    103    7    6.2e-05    0.000741    0.0173    1095    1095    1095    1    0    1    0    0;
    623    8    0.000512    0.008019    0.2455    2462    2462    2462    1    0    1    0    0;
    623    7    0.001153    0.013123    0.1841    1433    1433    1433    1    0    1    0    0;
    113    9    0.000158    0.000672    0.0719    331    331    331    1    0    1    0    0;
    1134    9    4.5e-05    8.9e-05    0.002    268    268    268    1    0    1    0    0;
    346    10    0.00478    0.028622    0.0547    455    455    455    1    0    1    0    0;
    345    10    0.00478    0.028583    0.0547    455    455    455    1    0    1    0    0;
    106    11    0.000257    0.000514    0.0294    0    0    0    1    0    1    0    0;
    758    12    0.000257    0.002153    0.2147    452    452    452    1    0    1    0    0;
    962    12    0.000277    0.000869    0.0931    481    481    481    1    0    1    0    0;
    955    13    0.000237    0.00083    0.1863    268    268    268    1    0    1    0    0;
    995    13    0.000178    0.000612    0.1377    268    268    268    1    0    1    0    0;
    39    14    0.002568    0.011753    0.0203    424    424    424    1    0    1    0    0;
    1428    14    0.002568    0.011615    0.0228    290    290    290    1    0    1    0    0;
    1054    16    9.9e-05    0.00077    0.078    379    379    379    1    0    1    0    0;
    1054    15    9.9e-05    0.00077    0.077    379    379    379    1    0    1    0    0;
    1428    17    0.000514    0.003437    0.0061    290    290    290    1    0    1    0    0;
    1432    17    0.005476    0.036879    0.1255    522    522    522    1    0    1    0    0;
    39    17    0.000514    0.003457    0.0061    418    418    418    1    0    1    0    0;
    869    18    0.003477    0.01118    0.0187    304    304    304    1    0    1    0    0;
    1089    18    0.000612    0.003121    0.0152    270    270    270    1    0    1    0    0;
    1164    20    2.4e-05    0.000144    0.0213    701    701    701    1    0    1    0    0;
    1164    19    7.1e-05    0.000162    0.0162    251    251    251    1    0    1    0    0;
    972    21    0.000257    0.001165    0.002    405    405    405    1    0    1    0    0;
    476    22    0.005709    0.037926    0.0688    492    492    492    1    0    1    0    0;
    1497    22    0.001758    0.011654    0.0208    492    492    492    1    0    1    0    0;
    69    23    0.001383    0.009462    0.0172    463    463    463    1    0    1    0    0;
    446    23    0.00156    0.006933    0.0121    432    432    432    1    0    1    0    0;
    605    23    0.006376    0.028733    0.0506    432    432    432    1    0    1    0    0;
    987    23    0.00158    0.010627    0.0192    481    481    481    1    0    1    0    0;
    845    25    0.001086    0.003536    0.3766    506    506    506    1    0    1    0    0;
    845    25    0.001086    0.003536    0.3766    506    506    506    1    0    1    0    0;
    123    27    0.004741    0.020385    0.0334    0    0    0    1    0    1    0    0;
    1479    27    0.009027    0.048869    0.084    351    351    351    1    0    1    0    0;
    1500    27    0.003516    0.016257    0.0273    311    311    311    1    0    1    0    0;
    289    28    0.000514    0.003417    0.0278    452    452    452    1    0    1    0    0;
    307    28    0.001084    0.007198    0.0132    448    448    448    1    0    1    0    0;
    1451    28    0.000523    0.002436    0.0167    348    348    348    1    0    1    0    0;
    289    28    0.000514    0.003457    0.0203    356    356    356    1    0    1    0    0;
    307    28    0.001086    0.007249    0.0132    540    540    540    1    0    1    0    0;
    1450    28    0.000553    0.002469    0.0157    405    405    405    1    0    1    0    0;
    307    28    0.001086    0.007269    0.0132    540    540    540    1    0    1    0    0;
    842    31    0.001837    0.011694    0.0759    467    467    467    1    0    1    0    0;
    960    31    0.001067    0.007131    0.0132    413    413    413    1    0    1    0    0;
    1269    31    0.001284    0.008593    0.0152    541    541    541    1    0    1    0    0;
    1270    31    0.001284    0.008593    0.0162    541    541    541    1    0    1    0    0;
    1270    31    0.001284    0.008533    0.0162    541    541    541    1    0    1    0    0;
    212    33    0.000494    0.000928    0.0699    0    0    0    1    0    1    0    0;
    326    33    0.000184    0.00159    0.1661    422    422    422    1    0    1    0    0;
    1153    33    0.000198    0.001711    0.1711    385    385    385    1    0    1    0    0;
    1170    33    0.000751    0.003358    0.1534    385    385    385    1    0    1    0    0;
    343    34    0.000178    0.001047    0.1499    452    452    452    1    0    1    0    0;
    955    34    0.000316    0.002232    0.2774    452    452    452    1    0    1    0    0;
    1257    35    0.037227    0.106836    0.0328    0    0    0    1    0    1    0    0;
    1439    35    0.006089    0.020756    0.0067    0    0    0    1    0    1    0    0;
    846    36    0.000729    0.005118    0.0933    389    389    389    1    0    1    0    0;
    846    36    0.000755    0.005235    0.0909    419    419    419    1    0    1    0    0;
    228    37    0.001787    0.01946    0.4214    1579    1579    1579    1    0    1    0    0;
    477    38    0.001719    0.00877    0.0157    321    321    321    1    0    1    0    0;
    1179    38    0.009165    0.04318    0.077    321    321    321    1    0    1    0    0;
    134    39    0.004879    0.032454    0.0602    487    487    487    1    0    1    0    0;
    195    39    0.006341    0.042746    0.0785    418    418    418    1    0    1    0    0;
    208    39    0.006914    0.031249    0.0547    327    327    327    1    0    1    0    0;
    296    40    0.000582    0.007652    0.2643    2487    2487    2487    1    0    1    0    0;
    766    40    0.001648    0.021634    0.748    2487    2487    2487    1    0    1    0    0;
    950    40    0.000838    0.014301    0.5198    2487    2487    2487    1    0    1    0    0;
    1282    40    0.001163    0.015312    0.5285    2487    2487    2487    1    0    1    0    0;
    296    40    0.000575    0.007576    0.2614    2487    2487    2487    1    0    1    0    0;
    766    40    0.001646    0.021633    0.7479    2487    2487    2487    1    0    1    0    0;
    950    40    0.000838    0.014287    0.5198    2487    2487    2487    1    0    1    0    0;
    1281    40    0.00117    0.015339    0.5285    2487    2487    2487    1    0    1    0    0;
    1282    40    0.001821    0.017874    0.4318    1382    1382    1382    1    0    1    0    0;
    558    41    0.000672    0.003477    0.0365    254    254    254    1    0    1    0    0;
    1420    42    0.000632    0.004188    0.0081    471    471    471    1    0    1    0    0;
    1420    43    0.000612    0.004148    0.0071    471    471    471    1    0    1    0    0;
    1040    44    0.000672    0.004405    0.0081    541    541    541    1    0    1    0    0;
    1521    44    0.000968    0.004602    0.0081    304    304    304    1    0    1    0    0;
    1040    44    0.000632    0.004444    0.0081    440    440    440    1    0    1    0    0;
    1524    45    0.001975    0.013215    0.0243    541    541    541    1    0    1    0    0;
    1525    45    0.001956    0.013037    0.0243    0    0    0    1    0    1    0    0;
    1321    46    0.002933    0.010267    0.0032    0    0    0    1    0    1    0    0;
    1429    46    0.0028    0.007511    0.0022    0    0    0    1    0    1    0    0;
    49    48    2e-05    0.000198    0.0121    261    261    261    1    0    1    0    0;
    49    47    2e-05    0.000198    0.0142    261    261    261    1    0    1    0    0;
    298    49    0.002037    0.010904    0.0187    352    352    352    1    0    1    0    0;
    318    49    0.000415    0.002015    0.1266    428    428    428    1    0    1    0    0;
    370    49    0.000395    0.00156    0.1893    426    426    426    1    0    1    0    0;
    608    49    4e-05    0.000178    0.0152    0    0    0    1    0    1    0    0;
    836    49    0.001323    0.012444    0.0678    935    935    935    1    0    1    0    0;
    1227    49    0.000454    0.002133    0.2511    268    268    268    1    0    1    0    0;
    1381    49    0.000119    0.000691    0.1002    387    387    387    1    0    1    0    0;
    1411    49    0.00083    0.005175    0.0203    323    323    323    1    0    1    0    0;
    836    49    0.001314    0.012115    0.0673    943    943    943    1    0    1    0    0;
...